artifacts/measurements/out_measurements_balanced/models_topology/case_topology_corrected_562798472158.m
function mpc = case_topology_corrected_562798472158
mpc.version = '2';
mpc.baseMVA = 100;

mpc.bus = [
    1 3 0 0 0 0 1 1.06 0 135 1 2 0 0 0 0 0 0;
    2 2 21.7 12.7 0 0 1 1.045 -35.5822996685 135 1 2 0 0 0 0 0 0;
    3 2 94.2 19 0 0 1 1.01 -40.4745067856 135 1 2 0 0 0 0 0 0;
    4 1 47.8 -3.9 0 0 1 1.01407731987 -35.2113790817 135 1 2 0 0 0 0 0 0;
    5 1 7.6 1.6 0 0 1 1.00958009805 -31.6057393197 135 1 2 0 0 0 0 0 0;
    6 2 11.2 7.5 0 0 1 1.07 -38.2086978173 0.208 1 2 0 0 0 0 0 0;
    7 1 0 0 0 0 1 1.04828199893 -38.0295184301 14 1 2 0 0 0 0 0 0;
    8 2 0 0 0 0 1 1.09 -38.0295184301 12 1 2 0 0 0 0 0 0;
    9 1 29.5 16.6 0 19 1 1.04119742235 -39.4729887589 0.208 1 2 0 0 0 0 0 0;
    10 1 9 5.8 0 0 1 1.03861171661 -39.5325429019 0.208 1 2 0 0 0 0 0 0;
    11 1 3.5 1.8 0 0 1 1.05040981978 -38.996798614 0.208 1 2 0 0 0 0 0 0;
    12 1 6.1 1.6 0 0 1 1.05417857027 -39.1116985164 0.208 1 2 0 0 0 0 0 0;
    13 1 13.5 5.8 0 0 1 1.04806128558 -39.2185235127 0.208 1 2 0 0 0 0 0 0;
    14 1 14.9 5 0 0 1 1.02599087686 -40.3779663419 0.208 1 2 0 0 0 0 0 0;
];

mpc.gen = [
    1 0 0 0 0 1.06 1 1 1000000000 -1000000000 0 0 0 0 0 0 0 0 0 0 0 0 0 0 0 1;
    2 40 0 1000000000 -1000000000 1.045 nan 1 1000000000 -1000000000 0 0 0 0 0 0 0 0 0 0 0 0 0 0 0 0;
    3 0 0 2000000000 -2000000000 1.01 nan 1 2000000000 -2000000000 0 0 0 0 0 0 0 0 0 0 0 0 0 0 0 0;
    6 0 0 1000000000 -1000000000 1.07 nan 1 1000000000 -1000000000 0 0 0 0 0 0 0 0 0 0 0 0 0 0 0 0;
    8 0 0 1000000000 -1000000000 1.09 nan 1 1000000000 -1000000000 0 0 0 0 0 0 0 0 0 0 0 0 0 0 0 0;
];

mpc.branch = [
    1 5 0.05403 0.22304 0.0492 100 0 0 0 0 1 -360 360 0 0 0 0 0 0 0 0 0;
    2 3 0.04699 0.19797 0.0438 100 0 0 0 0 1 -360 360 0 0 0 0 0 0 0 0 0;
    2 4 0.05811 0.17632 0.034 100 0 0 0 0 1 -360 360 0 0 0 0 0 0 0 0 0;
    2 5 0.05695 0.17388 0.0346 100 0 0 0 0 1 -360 360 0 0 0 0 0 0 0 0 0;
    3 4 0.06701 0.17103 0.0128 100 0 0 0 0 1 -360 360 0 0 0 0 0 0 0 0 0;
    4 5 0.01335 0.04211 0 100 0 0 0 0 1 -360 360 0 0 0 0 0 0 0 0 0;
    4 7 0 0.20912 -0 100 0 0 0 0 1 -360 360 0 0 0 0 0 0 0 0 0;
    4 9 0 0.55618 -0 100 0 0 0 0 1 -360 360 0 0 0 0 0 0 0 0 0;
    5 6 0 0.25202 -0 100 0 0 0 0 1 -360 360 0 0 0 0 0 0 0 0 0;
    6 11 0.09498 0.1989 0 100 0 0 0 0 1 -360 360 0 0 0 0 0 0 0 0 0;
    6 12 0.12291 0.25581 0 100 0 0 0 0 1 -360 360 0 0 0 0 0 0 0 0 0;
    6 13 0.06615 0.13027 0 100 0 0 0 0 1 -360 360 0 0 0 0 0 0 0 0 0;
    7 8 0 0.17615 -0 100 0 0 0 0 1 -360 360 0 0 0 0 0 0 0 0 0;
    7 9 0 0.11001 -0 100 0 0 0 0 1 -360 360 0 0 0 0 0 0 0 0 0;
    9 10 0.03181 0.0845 0 100 0 0 0 0 1 -360 360 0 0 0 0 0 0 0 0 0;
    9 14 0.12711 0.27038 0 100 0 0 0 0 1 -360 360 0 0 0 0 0 0 0 0 0;
    10 11 0.08205 0.19207 0 100 0 0 0 0 1 -360 360 0 0 0 0 0 0 0 0 0;
    12 13 0.22092 0.19988 0 100 0 0 0 0 1 -360 360 0 0 0 0 0 0 0 0 0;
    13 14 0.17093 0.34802 0 100 0 0 0 0 1 -360 360 0 0 0 0 0 0 0 0 0;
];

